New Linecode.BT_1/0 AAAC_AAAC_1/0_1 nphases=2
~ rmatrix = [ 0.1971  0.194803 | 0.194803  0.192543 ]  
~ xmatrix = [ 0.1971  0.194803 | 0.194803  0.192543 ]  
~ Normamps=205
~ kron=y 

New Linecode.BT_1/0 AAAC_AAAC_1/0_3 nphases=2
~ rmatrix = [ 0.712091386  0.059216675  0.059216675 | 0.059216675  0.712091386  0.059216675 | 0.059216675  0.059216675  697364889.0 ]  
~ xmatrix = [ 0.712091386  0.059216675  0.059216675 | 0.059216675  0.712091386  0.059216675 | 0.059216675  0.059216675  697364889.0 ]  
~ Normamps=205
~ kron=y 

New Linecode.BT_1/0 AAAC_AAAC_1/0_4 nphases=3
~ rmatrix = [ 0.712091386  0.059216675  0.059216675  0.059216675 | 0.059216675  0.712091386  0.059216675  0.059216675 | 0.059216675  0.059216675  0.697364889  0.059216675 | 0.059216675  0.059216675  0.059216675  0.697364889 ]  
~ xmatrix = [ 0.712091386  0.059216675  0.059216675  0.059216675 | 0.059216675  0.712091386  0.059216675  0.059216675 | 0.059216675  0.059216675  0.697364889  0.059216675 | 0.059216675  0.059216675  0.059216675  0.697364889 ]  
~ Normamps=205
~ kron=y 

New Linecode.BT_1/0 AAAC_AAAC_123.3_1 nphases=2
~ rmatrix = [ 0.172111  0.170071 | 0.170071  0.168067 ]  
~ xmatrix = [ 0.172111  0.170071 | 0.170071  0.168067 ]  
~ Normamps=205
~ kron=y 

New Linecode.BT_1/0 AAAC_AAAC_123.3_3 nphases=2
~ rmatrix = [ 0.71224363  0.059229335  0.059229335 | 0.059229335  0.71224363  0.059229335 | 0.059229335  0.059229335  0.697513984 ]  
~ xmatrix = [ 0.71224363  0.059229335  0.059229335 | 0.059229335  0.71224363  0.059229335 | 0.059229335  0.059229335  0.697513984 ]  
~ Normamps=205
~ kron=y 

New Linecode.BT_1/0 AAAC_AAAC_2_1 nphases=2
~ rmatrix = [ 0.1971  0.194803 | 0.194803  0.192543 ]  
~ xmatrix = [ 0.1971  0.194803 | 0.194803  0.192543 ]  
~ Normamps=205
~ kron=y 

New Linecode.BT_1/0 AAAC_AAAC_2_3 nphases=2
~ rmatrix = [ 0.71224363  0.059229335  0.059229335 | 0.059229335  0.71224363  0.059229335 | 0.059229335  0.059229335  0.697513984 ]  
~ xmatrix = [ 0.71224363  0.059229335  0.059229335 | 0.059229335  0.71224363  0.059229335 | 0.059229335  0.059229335  0.697513984 ]  
~ Normamps=205
~ kron=y 

New Linecode.BT_1/0 AAAC_AAAC_2_6 nphases=2
~ rmatrix = [ 1844308224.0  0.1533704832  0.1533704832 | 0.1533704832  1844308224.0  0.1533704832 | 0.1533704832  0.1533704832  18061667712.0 ]  
~ xmatrix = [ 1844308224.0  0.1533704832  0.1533704832 | 0.1533704832  1844308224.0  0.1533704832 | 0.1533704832  0.1533704832  18061667712.0 ]  
~ Normamps=205
~ kron=y 

New Linecode.BT_1/0 AAAC_AAAC_6_3 nphases=2
~ rmatrix = [ 0.71224363  0.059229335  0.059229335 | 0.059229335  0.71224363  0.059229335 | 0.059229335  0.059229335  0.697513984 ]  
~ xmatrix = [ 0.71224363  0.059229335  0.059229335 | 0.059229335  0.71224363  0.059229335 | 0.059229335  0.059229335  0.697513984 ]  
~ Normamps=205
~ kron=y 

New Linecode.BT_1/0 AAAC_ACSR_1/0_1 nphases=2
~ rmatrix = [ 0.159397  0.157563 | 0.157563  0.155761 ]  
~ xmatrix = [ 0.159397  0.157563 | 0.157563  0.155761 ]  
~ Normamps=205
~ kron=y 

New Linecode.BT_1/0 AAAC_ACSR_1/0_3 nphases=2
~ rmatrix = [ 0.71224363  0.059229335  0.059229335 | 0.059229335  0.71224363  0.059229335 | 0.059229335  0.059229335  0.697513984 ]  
~ xmatrix = [ 0.71224363  0.059229335  0.059229335 | 0.059229335  0.71224363  0.059229335 | 0.059229335  0.059229335  0.697513984 ]  
~ Normamps=205
~ kron=y 

New Linecode.BT_1/0 AAAC_ACSR_2_1 nphases=2
~ rmatrix = [ 0.18876  0.186603 | 0.186603  0.18448 ]  
~ xmatrix = [ 0.18876  0.186603 | 0.186603  0.18448 ]  
~ Normamps=205
~ kron=y 

New Linecode.BT_1/0 AAAC_ACSR_2_3 nphases=2
~ rmatrix = [ 0.71224363  0.059229335  0.059229335 | 0.059229335  0.71224363  0.059229335 | 0.059229335  0.059229335  0.697513984 ]  
~ xmatrix = [ 0.71224363  0.059229335  0.059229335 | 0.059229335  0.71224363  0.059229335 | 0.059229335  0.059229335  0.697513984 ]  
~ Normamps=205
~ kron=y 

New Linecode.BT_1/0 AAAC_ACSR_6_1 nphases=2
~ rmatrix = [ 0.7601  0.16622 | 0.16622  0.756766 ]  
~ xmatrix = [ 0.7601  0.16622 | 0.16622  0.756766 ]  
~ Normamps=205
~ kron=y 

New Linecode.BT_1/0 AAAC_ACSR_6_3 nphases=2
~ rmatrix = [ 0.71224363  0.059229335  0.059229335 | 0.059229335  0.71224363  0.059229335 | 0.059229335  0.059229335  0.697513984 ]  
~ xmatrix = [ 0.71224363  0.059229335  0.059229335 | 0.059229335  0.71224363  0.059229335 | 0.059229335  0.059229335  0.697513984 ]  
~ Normamps=205
~ kron=y 

New Linecode.BT_1/0 AAAC_CO_TR_1/0_1 nphases=2
~ rmatrix = [ 0.719415  0.12575 | 0.12575  0.716513 ]  
~ xmatrix = [ 0.719415  0.12575 | 0.12575  0.716513 ]  
~ Normamps=205
~ kron=y 

New Linecode.BT_1/0 AAAC_NE_NE_1 nphases=2
~ rmatrix = [ 0.1971  0.194803 | 0.194803  0.192543 ]  
~ xmatrix = [ 0.1971  0.194803 | 0.194803  0.192543 ]  
~ Normamps=205
~ kron=y 

New Linecode.BT_1/0 AAC_AAAC_2_3 nphases=2
~ rmatrix = [ 0.71224363  0.059229335  0.059229335 | 0.059229335  0.71224363  0.059229335 | 0.059229335  0.059229335  0.697513984 ]  
~ xmatrix = [ 0.71224363  0.059229335  0.059229335 | 0.059229335  0.71224363  0.059229335 | 0.059229335  0.059229335  0.697513984 ]  
~ Normamps=180
~ kron=y 

New Linecode.BT_1/0 AAC_AAAC_246.9_1 nphases=2
~ rmatrix = [ 0.659721  0.097439 | 0.097439  0.657572 ]  
~ xmatrix = [ 0.659721  0.097439 | 0.097439  0.657572 ]  
~ Normamps=180
~ kron=y 

New Linecode.BT_1/0 AAC_ACSR_1/0_3 nphases=2
~ rmatrix = [ 0.71224363  0.059229335  0.059229335 | 0.059229335  0.71224363  0.059229335 | 0.059229335  0.059229335  0.71224363 ]  
~ xmatrix = [ 0.71224363  0.059229335  0.059229335 | 0.059229335  0.71224363  0.059229335 | 0.059229335  0.059229335  0.71224363 ]  
~ Normamps=247
~ kron=y 

New Linecode.BT_1/0 AAC_ACSR_2_1 nphases=2
~ rmatrix = [ 0.749956  0.186603 | 0.186603  0.745676 ]  
~ xmatrix = [ 0.749956  0.186603 | 0.186603  0.745676 ]  
~ Normamps=247
~ kron=y 

New Linecode.BT_1/0 AAC_ACSR_6_1 nphases=2
~ rmatrix = [ 0.729096  0.16622 | 0.16622  0.725762 ]  
~ xmatrix = [ 0.729096  0.16622 | 0.16622  0.725762 ]  
~ Normamps=247
~ kron=y 

New Linecode.BT_1/0 AAC_ACSR_6_3 nphases=2
~ rmatrix = [ 0.71224363  0.059229335  0.059229335 | 0.059229335  0.71224363  0.059229335 | 0.059229335  0.059229335  0.71224363 ]  
~ xmatrix = [ 0.71224363  0.059229335  0.059229335 | 0.059229335  0.71224363  0.059229335 | 0.059229335  0.059229335  0.71224363 ]  
~ Normamps=247
~ kron=y 

New Linecode.BT_1/0 AAC_ACSR_6_6 nphases=2
~ rmatrix = [ 0.71224363  0.059229335  0.059229335 | 0.059229335  0.71224363  0.059229335 | 0.059229335  0.059229335  0.71224363 ]  
~ xmatrix = [ 0.71224363  0.059229335  0.059229335 | 0.059229335  0.71224363  0.059229335 | 0.059229335  0.059229335  0.71224363 ]  
~ Normamps=247
~ kron=y 

New Linecode.BT_1/0 AAC_ACSR_8_6 nphases=2
~ rmatrix = [ 0.71224363  0.059229335  0.059229335 | 0.059229335  0.71224363  0.059229335 | 0.059229335  0.059229335  0.764760721 ]  
~ xmatrix = [ 0.71224363  0.059229335  0.059229335 | 0.059229335  0.71224363  0.059229335 | 0.059229335  0.059229335  0.764760721 ]  
~ Normamps=247
~ kron=y 

New Linecode.BT_1/0 ACSR_AAAC_1/0_1 nphases=2
~ rmatrix = [ 0.757104  0.174279 | 0.174279  0.752958 ]  
~ xmatrix = [ 0.757104  0.174279 | 0.174279  0.752958 ]  
~ Normamps=242
~ kron=y 

New Linecode.BT_1/0 ACSR_AAAC_123.3_1 nphases=2
~ rmatrix = [ 0.752844  0.170071 | 0.170071  0.7488 ]  
~ xmatrix = [ 0.752844  0.170071 | 0.170071  0.7488 ]  
~ Normamps=242
~ kron=y 

New Linecode.BT_1/0 ACSR_AAAC_2_1 nphases=2
~ rmatrix = [ 0.777834  0.194803 | 0.194803  0.773276 ]  
~ xmatrix = [ 0.777834  0.194803 | 0.194803  0.773276 ]  
~ Normamps=242
~ kron=y 

New Linecode.BT_1/0 ACSR_AAAC_246.9_1 nphases=2
~ rmatrix = [ 0.679259  0.097439 | 0.097439  0.677109 ]  
~ xmatrix = [ 0.679259  0.097439 | 0.097439  0.677109 ]  
~ Normamps=242
~ kron=y 

New Linecode.BT_1/0 ACSR_ACSR_1/0_1 nphases=2
~ rmatrix = [ 0.740131  0.157563 | 0.157563  0.736494 ]  
~ xmatrix = [ 0.740131  0.157563 | 0.157563  0.736494 ]  
~ Normamps=242
~ kron=y 

New Linecode.BT_1/0 ACSR_ACSR_1/0_3 nphases=2
~ rmatrix = [ 0.71224363  0.059229335  0.059229335 | 0.059229335  0.71224363  0.059229335 | 0.059229335  0.059229335  0.764760721 ]  
~ xmatrix = [ 0.71224363  0.059229335  0.059229335 | 0.059229335  0.71224363  0.059229335 | 0.059229335  0.059229335  0.764760721 ]  
~ Normamps=242
~ kron=y 

New Linecode.BT_1/0 ACSR_ACSR_1/0_4 nphases=3
~ rmatrix = [ 1844308224.0  0.1533704832  0.1533704832  0.1533704832 | 0.1533704832  1844308224.0  0.1533704832  0.1533704832 | 0.1533704832  0.1533704832  19888273152.0  0.1533704832 | 0.1533704832  0.1533704832  0.1533704832  19888273152.0 ]  
~ xmatrix = [ 1844308224.0  0.1533704832  0.1533704832  0.1533704832 | 0.1533704832  1844308224.0  0.1533704832  0.1533704832 | 0.1533704832  0.1533704832  19888273152.0  0.1533704832 | 0.1533704832  0.1533704832  0.1533704832  19888273152.0 ]  
~ Normamps=242
~ kron=y 

New Linecode.BT_1/0 ACSR_ACSR_1/0_6 nphases=2
~ rmatrix = [ 0.71224363  0.059229335  0.059229335 | 0.059229335  0.71224363  0.059229335 | 0.059229335  0.059229335  0.764760721 ]  
~ xmatrix = [ 0.71224363  0.059229335  0.059229335 | 0.059229335  0.71224363  0.059229335 | 0.059229335  0.059229335  0.764760721 ]  
~ Normamps=242
~ kron=y 

New Linecode.BT_1/0 ACSR_ACSR_123.3_1 nphases=2
~ rmatrix = [ 0.769494  0.186603 | 0.186603  0.765214 ]  
~ xmatrix = [ 0.769494  0.186603 | 0.186603  0.765214 ]  
~ Normamps=242
~ kron=y 

New Linecode.BT_1/0 ACSR_ACSR_2/0_1 nphases=2
~ rmatrix = [ 0.722245  0.1399 | 0.1399  0.71905 ]  
~ xmatrix = [ 0.722245  0.1399 | 0.1399  0.71905 ]  
~ Normamps=242
~ kron=y 

New Linecode.BT_1/0 ACSR_ACSR_2_1 nphases=2
~ rmatrix = [ 0.769494  0.186603 | 0.186603  0.765214 ]  
~ xmatrix = [ 0.769494  0.186603 | 0.186603  0.765214 ]  
~ Normamps=242
~ kron=y 

New Linecode.BT_1/0 ACSR_ACSR_2_3 nphases=2
~ rmatrix = [ 0.71224363  0.059229335  0.059229335 | 0.059229335  0.71224363  0.059229335 | 0.059229335  0.059229335  0.764760721 ]  
~ xmatrix = [ 0.71224363  0.059229335  0.059229335 | 0.059229335  0.71224363  0.059229335 | 0.059229335  0.059229335  0.764760721 ]  
~ Normamps=242
~ kron=y 

New Linecode.BT_1/0 ACSR_ACSR_2_4 nphases=3
~ rmatrix = [ 0.7122  0.059229  0.059229  0.059229 | 0.059229  0.7122  0.059229  0.059229 | 0.059229  0.059229  0.76805  0.059229 | 0.059229  0.059229  0.059229  0.76805 ]  
~ xmatrix = [ 0.7122  0.059229  0.059229  0.059229 | 0.059229  0.7122  0.059229  0.059229 | 0.059229  0.059229  0.76805  0.059229 | 0.059229  0.059229  0.059229  0.76805 ]  
~ Normamps=242
~ kron=y 

New Linecode.BT_1/0 ACSR_ACSR_2_6 nphases=2
~ rmatrix = [ 0.71224363  0.059229335  0.059229335 | 0.059229335  0.71224363  0.059229335 | 0.059229335  0.059229335  0.764760721 ]  
~ xmatrix = [ 0.71224363  0.059229335  0.059229335 | 0.059229335  0.71224363  0.059229335 | 0.059229335  0.059229335  0.764760721 ]  
~ Normamps=242
~ kron=y 

New Linecode.BT_1/0 ACSR_ACSR_6_1 nphases=2
~ rmatrix = [ 0.748633  0.16622 | 0.16622  0.7453 ]  
~ xmatrix = [ 0.748633  0.16622 | 0.16622  0.7453 ]  
~ Normamps=242
~ kron=y 

New Linecode.BT_1/0 ACSR_ACSR_6_3 nphases=2
~ rmatrix = [ 0.71224363  0.059229335  0.059229335 | 0.059229335  0.71224363  0.059229335 | 0.059229335  0.059229335  0.764760721 ]  
~ xmatrix = [ 0.71224363  0.059229335  0.059229335 | 0.059229335  0.71224363  0.059229335 | 0.059229335  0.059229335  0.764760721 ]  
~ Normamps=242
~ kron=y 

New Linecode.BT_1/0 ACSR_ACSR_6_6 nphases=2
~ rmatrix = [ 0.71224363  0.059229335  0.059229335 | 0.059229335  0.71224363  0.059229335 | 0.059229335  0.059229335  0.764760721 ]  
~ xmatrix = [ 0.71224363  0.059229335  0.059229335 | 0.059229335  0.71224363  0.059229335 | 0.059229335  0.059229335  0.764760721 ]  
~ Normamps=242
~ kron=y 

New Linecode.BT_1/0 ACSR_ACSR_8_1 nphases=2
~ rmatrix = [ 0.718114  0.136196 | 0.136196  0.715763 ]  
~ xmatrix = [ 0.718114  0.136196 | 0.136196  0.715763 ]  
~ Normamps=242
~ kron=y 

New Linecode.BT_1/0 ACSR_CO_TR_1/0_1 nphases=2
~ rmatrix = [ 0.706773  0.124597 | 0.124597  0.703914 ]  
~ xmatrix = [ 0.706773  0.124597 | 0.124597  0.703914 ]  
~ Normamps=242
~ kron=y 

New Linecode.BT_1/0 ACSR_CO_TR_1/0_3 nphases=2
~ rmatrix = [ 0.71224363  0.059229335  0.059229335 | 0.059229335  0.71224363  0.059229335 | 0.059229335  0.059229335  0.764760721 ]  
~ xmatrix = [ 0.71224363  0.059229335  0.059229335 | 0.059229335  0.71224363  0.059229335 | 0.059229335  0.059229335  0.764760721 ]  
~ Normamps=242
~ kron=y 

New Linecode.BT_1/0 ACSR_NE_NE_1 nphases=2
~ rmatrix = [ 0.159397  0.157563 | 0.157563  0.155761 ]  
~ xmatrix = [ 0.159397  0.157563 | 0.157563  0.155761 ]  
~ Normamps=242
~ kron=y 

New Linecode.BT_1/0 CO_SO_ACSR_2_1 nphases=2
~ rmatrix = [ 0.52896  0.186603 | 0.186603  0.52896 ]  
~ xmatrix = [ 0.52896  0.186603 | 0.186603  0.52896 ]  
~ Normamps=310
~ kron=y 

New Linecode.BT_1/0 CO_TR_AAAC_2_1 nphases=2
~ rmatrix = [ 0.53179  0.186603 | 0.186603  0.52751 ]  
~ xmatrix = [ 0.53179  0.186603 | 0.186603  0.52751 ]  
~ Normamps=265
~ kron=y 

New Linecode.BT_1/0 CO_TR_AAAC_6_6 nphases=2
~ rmatrix = [ 0.388067122  0.059229335  0.059229335 | 0.059229335  0.388067122  0.059229335 | 0.059229335  0.059229335  0.388067122 ]  
~ xmatrix = [ 0.388067122  0.059229335  0.059229335 | 0.059229335  0.388067122  0.059229335 | 0.059229335  0.059229335  0.388067122 ]  
~ Normamps=265
~ kron=y 

New Linecode.BT_1/0 CO_TR_ACSR_1/0_3 nphases=2
~ rmatrix = [ 0.388067122  0.059229335  0.059229335 | 0.059229335  0.388067122  0.059229335 | 0.059229335  0.059229335  0.388067122 ]  
~ xmatrix = [ 0.388067122  0.059229335  0.059229335 | 0.059229335  0.388067122  0.059229335 | 0.059229335  0.059229335  0.388067122 ]  
~ Normamps=265
~ kron=y 

New Linecode.BT_1/0 CO_TR_ACSR_123.3_1 nphases=2
~ rmatrix = [ 0.388067122  0.059229335  0.059229335 | 0.059229335  0.388067122  0.059229335 | 0.059229335  0.059229335  0.388067122 ]  
~ xmatrix = [ 0.388067122  0.059229335  0.059229335 | 0.059229335  0.388067122  0.059229335 | 0.059229335  0.059229335  0.388067122 ]  
~ Normamps=265
~ kron=y 

New Linecode.BT_1/0 CO_TR_ACSR_2_1 nphases=2
~ rmatrix = [ 0.53179  0.186603 | 0.186603  0.52751 ]  
~ xmatrix = [ 0.53179  0.186603 | 0.186603  0.52751 ]  
~ Normamps=265
~ kron=y 

New Linecode.BT_1/0 CO_TR_ACSR_2_3 nphases=2
~ rmatrix = [ 0.388067122  0.059229335  0.059229335 | 0.059229335  0.388067122  0.059229335 | 0.059229335  0.059229335  0.388067122 ]  
~ xmatrix = [ 0.388067122  0.059229335  0.059229335 | 0.059229335  0.388067122  0.059229335 | 0.059229335  0.059229335  0.388067122 ]  
~ Normamps=265
~ kron=y 

New Linecode.BT_1/0 CO_TR_CO_TR_1/0_1 nphases=2
~ rmatrix = [ 0.46907  0.124597 | 0.124597  0.466211 ]  
~ xmatrix = [ 0.46907  0.124597 | 0.124597  0.466211 ]  
~ Normamps=230
~ kron=y 

New Linecode.BT_1/0 CO_TR_CO_TR_1/0_3 nphases=2
~ rmatrix = [ 0.388067122  0.059229335  0.059229335 | 0.059229335  0.388067122  0.059229335 | 0.059229335  0.059229335  0.388067122 ]  
~ xmatrix = [ 0.388067122  0.059229335  0.059229335 | 0.059229335  0.388067122  0.059229335 | 0.059229335  0.059229335  0.388067122 ]  
~ Normamps=265
~ kron=y 

New Linecode.BT_1/0 CO_TR_CO_TR_1/0_4 nphases=3
~ rmatrix = [ 0.387984172  0.059216675  0.059216675  0.059216675 | 0.059216675  0.387984172  0.059216675  0.059216675 | 0.059216675  0.059216675  0.387984172  0.059216675 | 0.059216675  0.059216675  0.059216675  0.387984172 ]  
~ xmatrix = [ 0.387984172  0.059216675  0.059216675  0.059216675 | 0.059216675  0.387984172  0.059216675  0.059216675 | 0.059216675  0.059216675  0.387984172  0.059216675 | 0.059216675  0.059216675  0.059216675  0.387984172 ]  
~ Normamps=230
~ kron=y 

New Linecode.BT_1/0 CO_TR_CO_TR_1/0_6 nphases=2
~ rmatrix = [ 0.402248  0.0592176 | 0.0592176  0.402248 ]  
~ xmatrix = [ 0.402248  0.0592176 | 0.0592176  0.402248 ]  
~ Normamps=230
~ kron=y 

New Linecode.BT_1/0 Cobre Trensado_CO_TR_1/0_1 nphases=2
~ rmatrix = [ 0.46907  0.124597 | 0.124597  0.466211 ]  
~ xmatrix = [ 0.46907  0.124597 | 0.124597  0.466211 ]  
~ Normamps=230
~ kron=y 

New Linecode.BT_123.3 AAAC_AAAC_123.3_1 nphases=2
~ rmatrix = [ 0.734611  0.170071 | 0.170071  0.730567 ]  
~ xmatrix = [ 0.734611  0.170071 | 0.170071  0.730567 ]  
~ Normamps=256
~ kron=y 

New Linecode.BT_123.3 AAAC_AAAC_123.3_3 nphases=2
~ rmatrix = [ 0.734611  0.170071 | 0.170071  0.730567 ]  
~ xmatrix = [ 0.734611  0.170071 | 0.170071  0.730567 ]  
~ Normamps=256
~ kron=y 

New Linecode.BT_123.3 AAAC_AAAC_123.3_4 nphases=3
~ rmatrix = [ 0.683157  0.122858  0.122858 | 0.122858  0.687631  0.122858 | 0.122858  0.122858  0.683157 ]  
~ xmatrix = [ 0.683157  0.122858  0.122858 | 0.122858  0.687631  0.122858 | 0.122858  0.122858  0.683157 ]  
~ Normamps=256
~ kron=y 

New Linecode.BT_123.3 AAAC_AAAC_195.7_1 nphases=2
~ rmatrix = [ 0.679262  0.115432 | 0.115432  0.676629 ]  
~ xmatrix = [ 0.679262  0.115432 | 0.115432  0.676629 ]  
~ Normamps=256
~ kron=y 

New Linecode.BT_123.3 AAAC_AAAC_246.9_1 nphases=2
~ rmatrix = [ 0.661025  0.097439 | 0.097439  0.658876 ]  
~ xmatrix = [ 0.661025  0.097439 | 0.097439  0.658876 ]  
~ Normamps=256
~ kron=y 

New Linecode.BT_123.3 AAAC_AAAC_77.4_1 nphases=2
~ rmatrix = [ 0.760017  0.195216 | 0.195216  0.755453 ]  
~ xmatrix = [ 0.760017  0.195216 | 0.195216  0.755453 ]  
~ Normamps=256
~ kron=y 

New Linecode.BT_123.3 AAAC_ACSR_123.3_1 nphases=2
~ rmatrix = [ 0.734611  0.170071 | 0.170071  0.730567 ]  
~ xmatrix = [ 0.734611  0.170071 | 0.170071  0.730567 ]  
~ Normamps=256
~ kron=y 

New Linecode.BT_123.3 AAAC_ACSR_123.3_3 nphases=2
~ rmatrix = [ 0.734611  0.170071 | 0.170071  0.730567 ]  
~ xmatrix = [ 0.734611  0.170071 | 0.170071  0.730567 ]  
~ Normamps=256
~ kron=y 

New Linecode.BT_123.3 AAAC_ACSR_2_1 nphases=2
~ rmatrix = [ 0.760017  0.195216 | 0.195216  0.755453 ]  
~ xmatrix = [ 0.760017  0.195216 | 0.195216  0.755453 ]  
~ Normamps=256
~ kron=y 

New Linecode.BT_123.3 ACSR_ACSR_77.4_1 nphases=2
~ rmatrix = [ 0.679262  0.115432 | 0.115432  0.676629 ]  
~ xmatrix = [ 0.679262  0.115432 | 0.115432  0.676629 ]  
~ Normamps=256
~ kron=y 

New Linecode.BT_123.3 CO_TR_CO_TR_1/0_1 nphases=2
~ rmatrix = [ 0.689715  0.12575 | 0.12575  0.686813 ]  
~ xmatrix = [ 0.689715  0.12575 | 0.12575  0.686813 ]  
~ Normamps=256
~ kron=y 

New Linecode.BT_2 AAAC_ACSR_2_1 nphases=2
~ rmatrix = [ 11519.0  0.194803 | 0.194803  114734.0 ]  
~ xmatrix = [ 11519.0  0.194803 | 0.194803  114734.0 ]  
~ Normamps=191
~ kron=y 

New Linecode.BT_2 ACSR_AAAC_123.3_1 nphases=2
~ rmatrix = [ 112691.0  0.170071 | 0.170071  112287.0 ]  
~ xmatrix = [ 112691.0  0.170071 | 0.170071  112287.0 ]  
~ Normamps=184
~ kron=y 

New Linecode.BT_2 ACSR_AAAC_77.4_1 nphases=2
~ rmatrix = [ 115232.0  0.195216 | 0.195216  114775.0 ]  
~ xmatrix = [ 115232.0  0.195216 | 0.195216  114775.0 ]  
~ Normamps=184
~ kron=y 

New Linecode.BT_2 ACSR_ACSR_2_1 nphases=2
~ rmatrix = [ 114356.0  0.186603 | 0.186603  113928.0 ]  
~ xmatrix = [ 114356.0  0.186603 | 0.186603  113928.0 ]  
~ Normamps=150
~ kron=y 

New Linecode.BT_2 ACSR_ACSR_2_3 nphases=2
~ rmatrix = [ 110893.0  0.05856  0.05856 | 0.05856  110893.0  0.05856 | 0.05856  0.05856  11551875.0 ]  
~ xmatrix = [ 110893.0  0.05856  0.05856 | 0.05856  110893.0  0.05856 | 0.05856  0.05856  11551875.0 ]  
~ Normamps=150
~ kron=y 

New Linecode.BT_2 ACSR_ACSR_2_4 nphases=3
~ rmatrix = [ 110273.0  0.05929  0.05929  0.05929 | 0.05929  110273.0  0.05929  0.05929 | 0.05929  0.05929  1161839.0  0.05929 | 0.05929  0.05929  0.05929  1161839.0 ]  
~ xmatrix = [ 110273.0  0.05929  0.05929  0.05929 | 0.05929  110273.0  0.05929  0.05929 | 0.05929  0.05929  1161839.0  0.05929 | 0.05929  0.05929  0.05929  1161839.0 ]  
~ Normamps=135
~ kron=y 

New Linecode.BT_2 ACSR_ACSR_6_1 nphases=2
~ rmatrix = [ 114356.0  0.186603 | 0.186603  113928.0 ]  
~ xmatrix = [ 114356.0  0.186603 | 0.186603  113928.0 ]  
~ Normamps=184
~ kron=y 

New Linecode.BT_2 ACSR_ACSR_6_3 nphases=2
~ rmatrix = [ 110893.0  0.05856  0.05856 | 0.05856  110893.0  0.05856 | 0.05856  0.05856  11551875.0 ]  
~ xmatrix = [ 110893.0  0.05856  0.05856 | 0.05856  110893.0  0.05856 | 0.05856  0.05856  11551875.0 ]  
~ Normamps=150
~ kron=y 

New Linecode.BT_2 ACSR_NE_NE_1 nphases=2
~ rmatrix = [ 114356.0  0.186603 | 0.186603  113928.0 ]  
~ xmatrix = [ 114356.0  0.186603 | 0.186603  113928.0 ]  
~ Normamps=150
~ kron=y 

New Linecode.BT_2 CO_SO_ACSR_2_6 nphases=2
~ rmatrix = [ 0.71224363  0.059229335  0.059229335 | 0.059229335  0.71224363  0.059229335 | 0.059229335  0.059229335  0.71224363 ]  
~ xmatrix = [ 0.71224363  0.059229335  0.059229335 | 0.059229335  0.71224363  0.059229335 | 0.059229335  0.059229335  0.71224363 ]  
~ Normamps=247
~ kron=y 

New Linecode.BT_2 CO_TR_CO_TR_1/0_1 nphases=2
~ rmatrix = [ 114356.0  0.186603 | 0.186603  113928.0 ]  
~ xmatrix = [ 114356.0  0.186603 | 0.186603  113928.0 ]  
~ Normamps=150
~ kron=y 

New Linecode.BT_2/0 ACSR_ACSR_2/0_1 nphases=2
~ rmatrix = [ 0.603787  0.1399 | 0.1399  0.600592 ]  
~ xmatrix = [ 0.603787  0.1399 | 0.1399  0.600592 ]  
~ Normamps=276
~ kron=y 

New Linecode.BT_4 ACSR_ACSR_4_1 nphases=2
~ rmatrix = [ 166587.0  0.187005 | 0.187005  166177.0 ]  
~ xmatrix = [ 166587.0  0.187005 | 0.187005  166177.0 ]  
~ Normamps=140
~ kron=y 

New Linecode.BT_4 ACSR_ACSR_4_3 nphases=2
~ rmatrix = [ 173947.0  0.05923  0.05923 | 0.05923  173947.0  0.05923 | 0.05923  0.05923  17590625.0 ]  
~ xmatrix = [ 173947.0  0.05923  0.05923 | 0.05923  173947.0  0.05923 | 0.05923  0.05923  17590625.0 ]  
~ Normamps=115
~ kron=y 

New Linecode.BT_6 AAAC_AAAC_123.3_3 nphases=2
~ rmatrix = [ 27160625.0  0.0595625  0.0595625 | 0.0595625  27160625.0  0.0595625 | 0.0595625  0.0595625  2719375.0 ]  
~ xmatrix = [ 27160625.0  0.0595625  0.0595625 | 0.0595625  27160625.0  0.0595625 | 0.0595625  0.0595625  2719375.0 ]  
~ Normamps=85
~ kron=y 

New Linecode.BT_6 AAAC_AAAC_123.3_6 nphases=2
~ rmatrix = [ 27160625.0  0.0595625  0.0595625 | 0.0595625  27160625.0  0.0595625 | 0.0595625  0.0595625  2719375.0 ]  
~ xmatrix = [ 27160625.0  0.0595625  0.0595625 | 0.0595625  27160625.0  0.0595625 | 0.0595625  0.0595625  2719375.0 ]  
~ Normamps=85
~ kron=y 

New Linecode.BT_6 AAAC_AAAC_6_3 nphases=2
~ rmatrix = [ 27160625.0  0.0595625  0.0595625 | 0.0595625  27160625.0  0.0595625 | 0.0595625  0.0595625  2719375.0 ]  
~ xmatrix = [ 27160625.0  0.0595625  0.0595625 | 0.0595625  27160625.0  0.0595625 | 0.0595625  0.0595625  2719375.0 ]  
~ Normamps=85
~ kron=y 

New Linecode.BT_6 AAAC_AAAC_6_6 nphases=2
~ rmatrix = [ 27160625.0  0.0595625  0.0595625 | 0.0595625  27160625.0  0.0595625 | 0.0595625  0.0595625  2719375.0 ]  
~ xmatrix = [ 27160625.0  0.0595625  0.0595625 | 0.0595625  27160625.0  0.0595625 | 0.0595625  0.0595625  2719375.0 ]  
~ Normamps=85
~ kron=y 

New Linecode.BT_6 AAAC_ACSR_2_3 nphases=2
~ rmatrix = [ 27160625.0  0.0595625  0.0595625 | 0.0595625  27160625.0  0.0595625 | 0.0595625  0.0595625  2719375.0 ]  
~ xmatrix = [ 27160625.0  0.0595625  0.0595625 | 0.0595625  27160625.0  0.0595625 | 0.0595625  0.0595625  2719375.0 ]  
~ Normamps=85
~ kron=y 

New Linecode.BT_6 AAAC_ACSR_2_6 nphases=2
~ rmatrix = [ 27160625.0  0.0595625  0.0595625 | 0.0595625  27160625.0  0.0595625 | 0.0595625  0.0595625  2719375.0 ]  
~ xmatrix = [ 27160625.0  0.0595625  0.0595625 | 0.0595625  27160625.0  0.0595625 | 0.0595625  0.0595625  2719375.0 ]  
~ Normamps=85
~ kron=y 

New Linecode.BT_6 AAAC_ACSR_6_3 nphases=2
~ rmatrix = [ 27160625.0  0.0595625  0.0595625 | 0.0595625  27160625.0  0.0595625 | 0.0595625  0.0595625  2719375.0 ]  
~ xmatrix = [ 27160625.0  0.0595625  0.0595625 | 0.0595625  27160625.0  0.0595625 | 0.0595625  0.0595625  2719375.0 ]  
~ Normamps=85
~ kron=y 

New Linecode.BT_6 AAAC_ACSR_6_6 nphases=2
~ rmatrix = [ 27160625.0  0.0595625  0.0595625 | 0.0595625  27160625.0  0.0595625 | 0.0595625  0.0595625  2719375.0 ]  
~ xmatrix = [ 27160625.0  0.0595625  0.0595625 | 0.0595625  27160625.0  0.0595625 | 0.0595625  0.0595625  2719375.0 ]  
~ Normamps=85
~ kron=y 

New Linecode.BT_6 AAAC_CO_TR_1/0_6 nphases=2
~ rmatrix = [ 27160625.0  0.0595625  0.0595625 | 0.0595625  27160625.0  0.0595625 | 0.0595625  0.0595625  2719375.0 ]  
~ xmatrix = [ 27160625.0  0.0595625  0.0595625 | 0.0595625  27160625.0  0.0595625 | 0.0595625  0.0595625  2719375.0 ]  
~ Normamps=110
~ kron=y 

New Linecode.BT_6 ACSR_AAAC_123.3_3 nphases=2
~ rmatrix = [ 27160625.0  0.0595625  0.0595625 | 0.0595625  27160625.0  0.0595625 | 0.0595625  0.0595625  2719375.0 ]  
~ xmatrix = [ 27160625.0  0.0595625  0.0595625 | 0.0595625  27160625.0  0.0595625 | 0.0595625  0.0595625  2719375.0 ]  
~ Normamps=85
~ kron=y 

New Linecode.BT_6 ACSR_AAAC_6_3 nphases=2
~ rmatrix = [ 27160625.0  0.0595625  0.0595625 | 0.0595625  27160625.0  0.0595625 | 0.0595625  0.0595625  2719375.0 ]  
~ xmatrix = [ 27160625.0  0.0595625  0.0595625 | 0.0595625  27160625.0  0.0595625 | 0.0595625  0.0595625  2719375.0 ]  
~ Normamps=85
~ kron=y 

New Linecode.BT_6 ACSR_ACSR_1/0_1 nphases=2
~ rmatrix = [ 243266.0  0.16622 | 0.16622  242933.0 ]  
~ xmatrix = [ 243266.0  0.16622 | 0.16622  242933.0 ]  
~ Normamps=105
~ kron=y 

New Linecode.BT_6 ACSR_ACSR_1/0_3 nphases=2
~ rmatrix = [ 27160625.0  0.0595625  0.0595625 | 0.0595625  27160625.0  0.0595625 | 0.0595625  0.0595625  2719375.0 ]  
~ xmatrix = [ 27160625.0  0.0595625  0.0595625 | 0.0595625  27160625.0  0.0595625 | 0.0595625  0.0595625  2719375.0 ]  
~ Normamps=85
~ kron=y 

New Linecode.BT_6 ACSR_ACSR_2_1 nphases=2
~ rmatrix = [ 245352.0  0.186603 | 0.186603  244924.0 ]  
~ xmatrix = [ 245352.0  0.186603 | 0.186603  244924.0 ]  
~ Normamps=85
~ kron=y 

New Linecode.BT_6 ACSR_ACSR_2_3 nphases=2
~ rmatrix = [ 27160625.0  0.0595625  0.0595625 | 0.0595625  27160625.0  0.0595625 | 0.0595625  0.0595625  2719375.0 ]  
~ xmatrix = [ 27160625.0  0.0595625  0.0595625 | 0.0595625  27160625.0  0.0595625 | 0.0595625  0.0595625  2719375.0 ]  
~ Normamps=85
~ kron=y 

New Linecode.BT_6 ACSR_ACSR_2_4 nphases=3
~ rmatrix = [ 27160625.0  0.0595625  0.0595625  0.0595625 | 0.0595625  27160625.0  0.0595625  0.0595625 | 0.0595625  0.0595625  275375.0  0.0595625 | 0.0595625  0.0595625  0.0595625  275375.0 ]  
~ xmatrix = [ 27160625.0  0.0595625  0.0595625  0.0595625 | 0.0595625  27160625.0  0.0595625  0.0595625 | 0.0595625  0.0595625  275375.0  0.0595625 | 0.0595625  0.0595625  0.0595625  275375.0 ]  
~ Normamps=75
~ kron=y 

New Linecode.BT_6 ACSR_ACSR_2_6 nphases=2
~ rmatrix = [ 27160625.0  0.0595625  0.0595625 | 0.0595625  27160625.0  0.0595625 | 0.0595625  0.0595625  2719375.0 ]  
~ xmatrix = [ 27160625.0  0.0595625  0.0595625 | 0.0595625  27160625.0  0.0595625 | 0.0595625  0.0595625  2719375.0 ]  
~ Normamps=85
~ kron=y 

New Linecode.BT_6 ACSR_ACSR_6_1 nphases=2
~ rmatrix = [ 243266.0  0.16622 | 0.16622  242933.0 ]  
~ xmatrix = [ 243266.0  0.16622 | 0.16622  242933.0 ]  
~ Normamps=85
~ kron=y 

New Linecode.BT_6 ACSR_ACSR_6_2 nphases=2
~ rmatrix = [ 270029.0  0.0592176 | 0.0592176  270357.0 ]  
~ xmatrix = [ 270029.0  0.0592176 | 0.0592176  270357.0 ]  
~ Normamps=85
~ kron=y 

New Linecode.BT_6 ACSR_ACSR_6_3 nphases=2
~ rmatrix = [ 27160625.0  0.0595625  0.0595625 | 0.0595625  27160625.0  0.0595625 | 0.0595625  0.0595625  2719375.0 ]  
~ xmatrix = [ 27160625.0  0.0595625  0.0595625 | 0.0595625  27160625.0  0.0595625 | 0.0595625  0.0595625  2719375.0 ]  
~ Normamps=85
~ kron=y 

New Linecode.BT_6 ACSR_ACSR_6_4 nphases=3
~ rmatrix = [ 27160625.0  0.0595625  0.0595625  0.0595625 | 0.0595625  27160625.0  0.0595625  0.0595625 | 0.0595625  0.0595625  275375.0  0.0595625 | 0.0595625  0.0595625  0.0595625  275375.0 ]  
~ xmatrix = [ 27160625.0  0.0595625  0.0595625  0.0595625 | 0.0595625  27160625.0  0.0595625  0.0595625 | 0.0595625  0.0595625  275375.0  0.0595625 | 0.0595625  0.0595625  0.0595625  275375.0 ]  
~ Normamps=75
~ kron=y 

New Linecode.BT_6 ACSR_ACSR_6_6 nphases=2
~ rmatrix = [ 270029.0  0.0592176 | 0.0592176  270357.0 ]  
~ xmatrix = [ 270029.0  0.0592176 | 0.0592176  270357.0 ]  
~ Normamps=85
~ kron=y 

New Linecode.BT_6 ACSR_ACSR_8_6 nphases=2
~ rmatrix = [ 27160625.0  0.0595625  0.0595625 | 0.0595625  27160625.0  0.0595625 | 0.0595625  0.0595625  2719375.0 ]  
~ xmatrix = [ 27160625.0  0.0595625  0.0595625 | 0.0595625  27160625.0  0.0595625 | 0.0595625  0.0595625  2719375.0 ]  
~ Normamps=85
~ kron=y 

New Linecode.BT_6 ACSR_CO_TR_1/0_1 nphases=2
~ rmatrix = [ 239198.0  0.12575 | 0.12575  238907.0 ]  
~ xmatrix = [ 239198.0  0.12575 | 0.12575  238907.0 ]  
~ Normamps=85
~ kron=y 

New Linecode.BT_6 ACSR_CO_TR_8_3 nphases=2
~ rmatrix = [ 27160625.0  0.0595625  0.0595625 | 0.0595625  27160625.0  0.0595625 | 0.0595625  0.0595625  2719375.0 ]  
~ xmatrix = [ 27160625.0  0.0595625  0.0595625 | 0.0595625  27160625.0  0.0595625 | 0.0595625  0.0595625  2719375.0 ]  
~ Normamps=85
~ kron=y 

New Linecode.BT_6 CO_TR_ACSR_6_3 nphases=2
~ rmatrix = [ 1381370297.0  0.059216675  0.059216675 | 0.059216675  1381370297.0  0.059216675 | 0.059216675  0.059216675  1381370297.0 ]  
~ xmatrix = [ 1381370297.0  0.059216675  0.059216675 | 0.059216675  1381370297.0  0.059216675 | 0.059216675  0.059216675  1381370297.0 ]  
~ Normamps=85
~ kron=y 

New Linecode.BT_6 CO_TR_CO_TR_1/0_1 nphases=2
~ rmatrix = [ 150758.0  0.12575 | 0.12575  150467.0 ]  
~ xmatrix = [ 150758.0  0.12575 | 0.12575  150467.0 ]  
~ Normamps=125
~ kron=y 

New Linecode.BT_6 CO_TR_CO_TR_6_6 nphases=2